
 OpenBabel07242302513D

 36 38  0  0  0  0  0  0  0  0999 V2000
    2.3450    0.0293   -0.9058 N   0  0  0  0  0  0  0  0  0  0  0  0
    0.9734    0.0094   -0.5005 C   0  0  0  0  0  0  0  0  0  0  0  0
    0.2469    1.2098   -0.2703 C   0  0  0  0  0  0  0  0  0  0  0  0
    0.9113    2.5725   -0.2659 C   0  0  0  0  0  0  0  0  0  0  0  0
    2.2402    2.7904   -0.4574 N   0  0  0  0  0  2  0  0  0  0  0  0
    2.4625    4.1272   -0.2834 N   0  0  0  0  0  0  0  0  0  0  0  0
    1.2636    4.6749   -0.0168 C   0  0  0  0  0  0  0  0  0  0  0  0
    0.2968    3.7486   -0.0108 N   0  0  0  0  0  0  0  0  0  0  0  0
   -1.1242    1.1702    0.0430 C   0  0  0  0  0  0  0  0  0  0  0  0
   -1.7886   -0.0422    0.1697 C   0  0  0  0  0  0  0  0  0  0  0  0
   -1.0762   -1.2253    0.0198 C   0  0  0  0  0  0  0  0  0  0  0  0
    0.2979   -1.2178   -0.3000 C   0  0  0  0  0  0  0  0  0  0  0  0
    0.9527   -2.5672   -0.3269 C   0  0  0  0  0  0  0  0  0  0  0  0
    0.4305   -3.4593    0.3399 O   0  0  0  0  0  0  0  0  0  0  0  0
    2.0896   -2.7027   -1.0984 N   0  0  0  0  0  0  0  0  0  0  0  0
    2.9217   -3.8413   -1.1855 C   0  0  0  0  0  0  0  0  0  0  0  0
    2.6775   -5.0324   -0.4982 C   0  0  0  0  0  0  0  0  0  0  0  0
    3.5733   -6.1074   -0.5723 C   0  0  0  0  0  0  0  0  0  0  0  0
    4.7315   -6.0159   -1.3464 C   0  0  0  0  0  0  0  0  0  0  0  0
    4.9684   -4.8317   -2.0561 C   0  0  0  0  0  0  0  0  0  0  0  0
    4.0716   -3.7569   -1.9773 C   0  0  0  0  0  0  0  0  0  0  0  0
    5.7178   -7.1576   -1.3900 C   0  0  0  0  0  0  0  0  0  0  0  0
    5.3539   -8.2286   -0.6281 F   0  0  0  0  0  0  0  0  0  0  0  0
    5.8985   -7.6465   -2.6487 F   0  0  0  0  0  0  0  0  0  0  0  0
    6.9571   -6.7986   -0.9497 F   0  0  0  0  0  0  0  0  0  0  0  0
    2.6342    1.0323   -0.9732 H   0  0  0  0  0  0  0  0  0  0  0  0
    2.9351   -0.3722   -0.1795 H   0  0  0  0  0  0  0  0  0  0  0  0
    1.1074    5.7275    0.1726 H   0  0  0  0  0  0  0  0  0  0  0  0
   -1.6675    2.0993    0.2107 H   0  0  0  0  0  0  0  0  0  0  0  0
   -2.8450   -0.0636    0.4187 H   0  0  0  0  0  0  0  0  0  0  0  0
   -1.5939   -2.1718    0.1629 H   0  0  0  0  0  0  0  0  0  0  0  0
    2.3713   -1.8597   -1.6021 H   0  0  0  0  0  0  0  0  0  0  0  0
    1.7988   -5.1615    0.1241 H   0  0  0  0  0  0  0  0  0  0  0  0
    3.3462   -7.0124   -0.0050 H   0  0  0  0  0  0  0  0  0  0  0  0
    5.8635   -4.7370   -2.6691 H   0  0  0  0  0  0  0  0  0  0  0  0
    4.2920   -2.8495   -2.5352 H   0  0  0  0  0  0  0  0  0  0  0  0
  1  2  1  0  0  0  0
  1 26  1  0  0  0  0
  1 27  1  0  0  0  0
  2  3  1  0  0  0  0
  2 12  2  0  0  0  0
  3  4  1  0  0  0  0
  3  9  2  0  0  0  0
  4  5  1  0  0  0  0
  4  8  2  0  0  0  0
  5  6  1  0  0  0  0
  6  7  2  0  0  0  0
  7  8  1  0  0  0  0
  7 28  1  0  0  0  0
  9 10  1  0  0  0  0
  9 29  1  0  0  0  0
 10 11  2  0  0  0  0
 10 30  1  0  0  0  0
 11 12  1  0  0  0  0
 11 31  1  0  0  0  0
 12 13  1  0  0  0  0
 13 14  2  0  0  0  0
 13 15  1  0  0  0  0
 15 16  1  0  0  0  0
 15 32  1  0  0  0  0
 16 17  1  0  0  0  0
 16 21  2  0  0  0  0
 17 18  2  0  0  0  0
 17 33  1  0  0  0  0
 18 19  1  0  0  0  0
 18 34  1  0  0  0  0
 19 20  2  0  0  0  0
 19 22  1  0  0  0  0
 20 21  1  0  0  0  0
 20 35  1  0  0  0  0
 21 36  1  0  0  0  0
 22 23  1  0  0  0  0
 22 24  1  0  0  0  0
 22 25  1  0  0  0  0
M  END
$$$$
